* NGSPICE file created from user_analog_project_wrapper_flat.ext - technology: sky130A

.subckt user_analog_project_wrapper_flat gpio_analog[0] gpio_analog[10] gpio_analog[11]
+ gpio_analog[12] gpio_analog[13] gpio_analog[14] gpio_analog[15] gpio_analog[16]
+ gpio_analog[17] gpio_analog[1] gpio_analog[2] gpio_analog[3] gpio_analog[4] gpio_analog[5]
+ gpio_analog[6] gpio_analog[7] gpio_analog[8] gpio_analog[9] gpio_noesd[0] gpio_noesd[10]
+ gpio_noesd[11] gpio_noesd[12] gpio_noesd[13] gpio_noesd[14] gpio_noesd[15] gpio_noesd[16]
+ gpio_noesd[17] gpio_noesd[1] gpio_noesd[2] gpio_noesd[3] gpio_noesd[4] gpio_noesd[5]
+ gpio_noesd[6] gpio_noesd[7] gpio_noesd[8] gpio_noesd[9] io_analog[0] io_analog[10]
+ io_analog[1] io_analog[2] io_analog[3] io_analog[7] io_analog[8] io_analog[9] io_analog[4]
+ io_analog[5] io_analog[6] io_clamp_high[0] io_clamp_high[1] io_clamp_high[2] io_clamp_low[0]
+ io_clamp_low[1] io_clamp_low[2] io_in[0] io_in[10] io_in[11] io_in[12] io_in[13]
+ io_in[14] io_in[15] io_in[16] io_in[17] io_in[18] io_in[19] io_in[1] io_in[20] io_in[21]
+ io_in[22] io_in[23] io_in[24] io_in[25] io_in[26] io_in[2] io_in[3] io_in[4] io_in[5]
+ io_in[6] io_in[7] io_in[8] io_in[9] io_in_3v3[0] io_in_3v3[10] io_in_3v3[11] io_in_3v3[12]
+ io_in_3v3[13] io_in_3v3[14] io_in_3v3[15] io_in_3v3[16] io_in_3v3[17] io_in_3v3[18]
+ io_in_3v3[19] io_in_3v3[1] io_in_3v3[20] io_in_3v3[21] io_in_3v3[22] io_in_3v3[23]
+ io_in_3v3[24] io_in_3v3[25] io_in_3v3[26] io_in_3v3[2] io_in_3v3[3] io_in_3v3[4]
+ io_in_3v3[5] io_in_3v3[6] io_in_3v3[7] io_in_3v3[8] io_in_3v3[9] io_oeb[0] io_oeb[10]
+ io_oeb[11] io_oeb[12] io_oeb[13] io_oeb[14] io_oeb[15] io_oeb[16] io_oeb[17] io_oeb[18]
+ io_oeb[19] io_oeb[1] io_oeb[20] io_oeb[21] io_oeb[22] io_oeb[23] io_oeb[24] io_oeb[25]
+ io_oeb[26] io_oeb[2] io_oeb[3] io_oeb[4] io_oeb[5] io_oeb[6] io_oeb[7] io_oeb[8]
+ io_oeb[9] io_out[0] io_out[10] io_out[11] io_out[12] io_out[13] io_out[14] io_out[15]
+ io_out[16] io_out[17] io_out[18] io_out[19] io_out[1] io_out[20] io_out[21] io_out[22]
+ io_out[23] io_out[24] io_out[25] io_out[26] io_out[2] io_out[3] io_out[4] io_out[5]
+ io_out[6] io_out[7] io_out[8] io_out[9] la_data_in[0] la_data_in[100] la_data_in[101]
+ la_data_in[102] la_data_in[103] la_data_in[104] la_data_in[105] la_data_in[106]
+ la_data_in[107] la_data_in[108] la_data_in[109] la_data_in[10] la_data_in[110] la_data_in[111]
+ la_data_in[112] la_data_in[113] la_data_in[114] la_data_in[115] la_data_in[116]
+ la_data_in[117] la_data_in[118] la_data_in[119] la_data_in[11] la_data_in[120] la_data_in[121]
+ la_data_in[122] la_data_in[123] la_data_in[124] la_data_in[125] la_data_in[126]
+ la_data_in[127] la_data_in[12] la_data_in[13] la_data_in[14] la_data_in[15] la_data_in[16]
+ la_data_in[17] la_data_in[18] la_data_in[19] la_data_in[1] la_data_in[20] la_data_in[21]
+ la_data_in[22] la_data_in[23] la_data_in[24] la_data_in[25] la_data_in[26] la_data_in[27]
+ la_data_in[28] la_data_in[29] la_data_in[2] la_data_in[30] la_data_in[31] la_data_in[32]
+ la_data_in[33] la_data_in[34] la_data_in[35] la_data_in[36] la_data_in[37] la_data_in[38]
+ la_data_in[39] la_data_in[3] la_data_in[40] la_data_in[41] la_data_in[42] la_data_in[43]
+ la_data_in[44] la_data_in[45] la_data_in[46] la_data_in[47] la_data_in[48] la_data_in[49]
+ la_data_in[4] la_data_in[50] la_data_in[51] la_data_in[52] la_data_in[53] la_data_in[54]
+ la_data_in[55] la_data_in[56] la_data_in[57] la_data_in[58] la_data_in[59] la_data_in[5]
+ la_data_in[60] la_data_in[61] la_data_in[62] la_data_in[63] la_data_in[64] la_data_in[65]
+ la_data_in[66] la_data_in[67] la_data_in[68] la_data_in[69] la_data_in[6] la_data_in[70]
+ la_data_in[71] la_data_in[72] la_data_in[73] la_data_in[74] la_data_in[75] la_data_in[76]
+ la_data_in[77] la_data_in[78] la_data_in[79] la_data_in[7] la_data_in[80] la_data_in[81]
+ la_data_in[82] la_data_in[83] la_data_in[84] la_data_in[85] la_data_in[86] la_data_in[87]
+ la_data_in[88] la_data_in[89] la_data_in[8] la_data_in[90] la_data_in[91] la_data_in[92]
+ la_data_in[93] la_data_in[94] la_data_in[95] la_data_in[96] la_data_in[97] la_data_in[98]
+ la_data_in[99] la_data_in[9] la_data_out[0] la_data_out[100] la_data_out[101] la_data_out[102]
+ la_data_out[103] la_data_out[104] la_data_out[105] la_data_out[106] la_data_out[107]
+ la_data_out[108] la_data_out[109] la_data_out[10] la_data_out[110] la_data_out[111]
+ la_data_out[112] la_data_out[113] la_data_out[114] la_data_out[115] la_data_out[116]
+ la_data_out[117] la_data_out[118] la_data_out[119] la_data_out[11] la_data_out[120]
+ la_data_out[121] la_data_out[122] la_data_out[123] la_data_out[124] la_data_out[125]
+ la_data_out[126] la_data_out[127] la_data_out[12] la_data_out[13] la_data_out[14]
+ la_data_out[15] la_data_out[16] la_data_out[17] la_data_out[18] la_data_out[19]
+ la_data_out[1] la_data_out[20] la_data_out[21] la_data_out[22] la_data_out[23] la_data_out[24]
+ la_data_out[25] la_data_out[26] la_data_out[27] la_data_out[28] la_data_out[29]
+ la_data_out[2] la_data_out[30] la_data_out[31] la_data_out[32] la_data_out[33] la_data_out[34]
+ la_data_out[35] la_data_out[36] la_data_out[37] la_data_out[38] la_data_out[39]
+ la_data_out[3] la_data_out[40] la_data_out[41] la_data_out[42] la_data_out[43] la_data_out[44]
+ la_data_out[45] la_data_out[46] la_data_out[47] la_data_out[48] la_data_out[49]
+ la_data_out[4] la_data_out[50] la_data_out[51] la_data_out[52] la_data_out[53] la_data_out[54]
+ la_data_out[55] la_data_out[56] la_data_out[57] la_data_out[58] la_data_out[59]
+ la_data_out[5] la_data_out[60] la_data_out[61] la_data_out[62] la_data_out[63] la_data_out[64]
+ la_data_out[65] la_data_out[66] la_data_out[67] la_data_out[68] la_data_out[69]
+ la_data_out[6] la_data_out[70] la_data_out[71] la_data_out[72] la_data_out[73] la_data_out[74]
+ la_data_out[75] la_data_out[76] la_data_out[77] la_data_out[78] la_data_out[79]
+ la_data_out[7] la_data_out[80] la_data_out[81] la_data_out[82] la_data_out[83] la_data_out[84]
+ la_data_out[85] la_data_out[86] la_data_out[87] la_data_out[88] la_data_out[89]
+ la_data_out[8] la_data_out[90] la_data_out[91] la_data_out[92] la_data_out[93] la_data_out[94]
+ la_data_out[95] la_data_out[96] la_data_out[97] la_data_out[98] la_data_out[99]
+ la_data_out[9] la_oenb[0] la_oenb[100] la_oenb[101] la_oenb[102] la_oenb[103] la_oenb[104]
+ la_oenb[105] la_oenb[106] la_oenb[107] la_oenb[108] la_oenb[109] la_oenb[10] la_oenb[110]
+ la_oenb[111] la_oenb[112] la_oenb[113] la_oenb[114] la_oenb[115] la_oenb[116] la_oenb[117]
+ la_oenb[118] la_oenb[119] la_oenb[11] la_oenb[120] la_oenb[121] la_oenb[122] la_oenb[123]
+ la_oenb[124] la_oenb[125] la_oenb[126] la_oenb[127] la_oenb[12] la_oenb[13] la_oenb[14]
+ la_oenb[15] la_oenb[16] la_oenb[17] la_oenb[18] la_oenb[19] la_oenb[1] la_oenb[20]
+ la_oenb[21] la_oenb[22] la_oenb[23] la_oenb[24] la_oenb[25] la_oenb[26] la_oenb[27]
+ la_oenb[28] la_oenb[29] la_oenb[2] la_oenb[30] la_oenb[31] la_oenb[32] la_oenb[33]
+ la_oenb[34] la_oenb[35] la_oenb[36] la_oenb[37] la_oenb[38] la_oenb[39] la_oenb[3]
+ la_oenb[40] la_oenb[41] la_oenb[42] la_oenb[43] la_oenb[44] la_oenb[45] la_oenb[46]
+ la_oenb[47] la_oenb[48] la_oenb[49] la_oenb[4] la_oenb[50] la_oenb[51] la_oenb[52]
+ la_oenb[53] la_oenb[54] la_oenb[55] la_oenb[56] la_oenb[57] la_oenb[58] la_oenb[59]
+ la_oenb[5] la_oenb[60] la_oenb[61] la_oenb[62] la_oenb[63] la_oenb[64] la_oenb[65]
+ la_oenb[66] la_oenb[67] la_oenb[68] la_oenb[69] la_oenb[6] la_oenb[70] la_oenb[71]
+ la_oenb[72] la_oenb[73] la_oenb[74] la_oenb[75] la_oenb[76] la_oenb[77] la_oenb[78]
+ la_oenb[79] la_oenb[7] la_oenb[80] la_oenb[81] la_oenb[82] la_oenb[83] la_oenb[84]
+ la_oenb[85] la_oenb[86] la_oenb[87] la_oenb[88] la_oenb[89] la_oenb[8] la_oenb[90]
+ la_oenb[91] la_oenb[92] la_oenb[93] la_oenb[94] la_oenb[95] la_oenb[96] la_oenb[97]
+ la_oenb[98] la_oenb[99] la_oenb[9] user_clock2 user_irq[0] user_irq[1] user_irq[2]
+ vssa1 vssa2 vssd1 vssd2 wb_clk_i wb_rst_i wbs_ack_o wbs_adr_i[0] wbs_adr_i[10] wbs_adr_i[11]
+ wbs_adr_i[12] wbs_adr_i[13] wbs_adr_i[14] wbs_adr_i[15] wbs_adr_i[16] wbs_adr_i[17]
+ wbs_adr_i[18] wbs_adr_i[19] wbs_adr_i[1] wbs_adr_i[20] wbs_adr_i[21] wbs_adr_i[22]
+ wbs_adr_i[23] wbs_adr_i[24] wbs_adr_i[25] wbs_adr_i[26] wbs_adr_i[27] wbs_adr_i[28]
+ wbs_adr_i[29] wbs_adr_i[2] wbs_adr_i[30] wbs_adr_i[31] wbs_adr_i[3] wbs_adr_i[4]
+ wbs_adr_i[5] wbs_adr_i[6] wbs_adr_i[7] wbs_adr_i[8] wbs_adr_i[9] wbs_cyc_i wbs_dat_i[0]
+ wbs_dat_i[10] wbs_dat_i[11] wbs_dat_i[12] wbs_dat_i[13] wbs_dat_i[14] wbs_dat_i[15]
+ wbs_dat_i[16] wbs_dat_i[17] wbs_dat_i[18] wbs_dat_i[19] wbs_dat_i[1] wbs_dat_i[20]
+ wbs_dat_i[21] wbs_dat_i[22] wbs_dat_i[23] wbs_dat_i[24] wbs_dat_i[25] wbs_dat_i[26]
+ wbs_dat_i[27] wbs_dat_i[28] wbs_dat_i[29] wbs_dat_i[2] wbs_dat_i[30] wbs_dat_i[31]
+ wbs_dat_i[3] wbs_dat_i[4] wbs_dat_i[5] wbs_dat_i[6] wbs_dat_i[7] wbs_dat_i[8] wbs_dat_i[9]
+ wbs_dat_o[0] wbs_dat_o[10] wbs_dat_o[11] wbs_dat_o[12] wbs_dat_o[13] wbs_dat_o[14]
+ wbs_dat_o[15] wbs_dat_o[16] wbs_dat_o[17] wbs_dat_o[18] wbs_dat_o[19] wbs_dat_o[1]
+ wbs_dat_o[20] wbs_dat_o[21] wbs_dat_o[22] wbs_dat_o[23] wbs_dat_o[24] wbs_dat_o[25]
+ wbs_dat_o[26] wbs_dat_o[27] wbs_dat_o[28] wbs_dat_o[29] wbs_dat_o[2] wbs_dat_o[30]
+ wbs_dat_o[31] wbs_dat_o[3] wbs_dat_o[4] wbs_dat_o[5] wbs_dat_o[6] wbs_dat_o[7] wbs_dat_o[8]
+ wbs_dat_o[9] wbs_sel_i[0] wbs_sel_i[1] wbs_sel_i[2] wbs_sel_i[3] wbs_stb_i wbs_we_i
+ vccd2 vccd1 vdda2 vdda1
X0 a_41723_677112# a_42877_684772# a_43834_677960# a_5816_240836# sky130_fd_pr__nfet_01v8 ad=4.3e+12p pd=3.172e+07u as=7.25e+12p ps=5.348e+07u w=5e+06u l=1e+06u
X1 vccd1 a_540271_687858# a_537154_685355# vccd1 sky130_fd_pr__pfet_01v8 ad=1.363e+14p pd=9.9452e+08u as=3.045e+13p ps=2.2218e+08u w=5e+06u l=500000u
X2 a_11871_268125# a_14374_271026# vdda2 vdda2 sky130_fd_pr__pfet_01v8 ad=3.235e+13p pd=2.2294e+08u as=1.3679e+14p ps=1.00302e+09u w=5e+06u l=500000u
R0 vssd2 a_5816_240836# sky130_fd_pr__res_generic_m3 w=7.55e+07u l=1e+07u
X3 vccd1 a_540271_687858# a_540271_687858# vccd1 sky130_fd_pr__pfet_01v8 ad=0p pd=0u as=3.045e+13p ps=2.2218e+08u w=5e+06u l=500000u
X4 a_286829_352328# a_284589_352318# vdda2 vdda2 sky130_fd_pr__pfet_01v8_hvt ad=2.7e+11p pd=2.54e+06u as=0p ps=0u w=1e+06u l=150000u
X5 a_290737_348985# a_288222_348059# gpio_analog[2] vdda2 sky130_fd_pr__pfet_01v8 ad=2.51e+13p pd=1.7004e+08u as=2.624e+14p ps=1.70496e+09u w=5e+06u l=150000u
X6 vccd2 a_40125_693523# io_analog[10] vccd2 sky130_fd_pr__pfet_01v8 ad=7.39e+13p pd=5.3956e+08u as=2.9e+13p ps=2.116e+08u w=5e+06u l=500000u
X7 a_24084_271906# a_24084_271906# a_20532_271136# a_5816_240836# sky130_fd_pr__nfet_01v8 ad=7.25e+12p pd=5.348e+07u as=9.6e+12p ps=6.5e+07u w=2.5e+06u l=500000u
X8 a_20532_271136# a_282219_342236# gpio_analog[2] vdda2 sky130_fd_pr__pfet_01v8 ad=2.075e+13p pd=1.383e+08u as=0p ps=0u w=5e+06u l=150000u
X9 a_287394_343809# gpio_analog[4] a_287588_343809# a_5816_240836# sky130_fd_pr__nfet_01v8 ad=3.51e+11p pd=3.68e+06u as=5.915e+11p ps=5.72e+06u w=650000u l=150000u
X10 vdda1 a_536271_291858# a_536271_291858# vdda1 sky130_fd_pr__pfet_01v8 ad=1.363e+14p pd=9.9452e+08u as=3.045e+13p ps=2.2218e+08u w=5e+06u l=500000u
X11 a_5816_240836# a_290737_348985# a_536459_285940# a_5816_240836# sky130_fd_pr__nfet_01v8 ad=7.17928e+14p pd=5.06904e+09u as=4.06e+13p ps=2.9624e+08u w=5e+06u l=1e+06u
X12 gpio_analog[2] a_284459_345646# gpio_analog[11] a_5816_240836# sky130_fd_pr__nfet_01v8 ad=1.304e+14p pd=8.5216e+08u as=8.15e+12p ps=5.326e+07u w=5e+06u l=150000u
X13 a_287812_343783# gpio_analog[3] a_5816_240836# a_5816_240836# sky130_fd_pr__nfet_01v8 ad=7.02e+11p pd=7.36e+06u as=0p ps=0u w=650000u l=150000u
X14 gpio_analog[2] a_288222_345659# a_5816_240836# vdda2 sky130_fd_pr__pfet_01v8 ad=0p pd=0u as=8.82653e+14p ps=9.7052e+09u w=5e+06u l=150000u
X15 vdda2 a_11871_268125# a_12801_269626# vdda2 sky130_fd_pr__pfet_01v8 ad=0p pd=0u as=4.54e+13p ps=3.1816e+08u w=5e+06u l=500000u
X16 gpio_analog[2] a_282219_347336# gpio_analog[10] vdda2 sky130_fd_pr__pfet_01v8 ad=0p pd=0u as=1.64e+13p ps=1.0656e+08u w=5e+06u l=150000u
X17 gpio_analog[2] a_282219_347336# gpio_analog[10] vdda2 sky130_fd_pr__pfet_01v8 ad=0p pd=0u as=0p ps=0u w=5e+06u l=150000u
X18 a_290737_348985# a_288222_348059# gpio_analog[2] vdda2 sky130_fd_pr__pfet_01v8 ad=0p pd=0u as=0p ps=0u w=5e+06u l=150000u
X19 a_287139_344765# gpio_analog[6] vdda2 vdda2 sky130_fd_pr__pfet_01v8_hvt ad=1.08e+12p pd=1.016e+07u as=0p ps=0u w=1e+06u l=150000u
X20 a_288222_346459# gpio_analog[3] vdda2 vdda2 sky130_fd_pr__pfet_01v8_hvt ad=1.08e+12p pd=1.016e+07u as=0p ps=0u w=1e+06u l=150000u
X21 a_282219_342236# a_287812_343783# vdda2 vdda2 sky130_fd_pr__pfet_01v8_hvt ad=1.08e+12p pd=1.016e+07u as=0p ps=0u w=1e+06u l=150000u
X22 vdda1 a_536916_284434# a_536916_284434# vdda1 sky130_fd_pr__pfet_01v8 ad=0p pd=0u as=8.7e+12p ps=6.348e+07u w=5e+06u l=1e+06u
X23 gpio_analog[14] a_288222_344859# gpio_analog[2] vdda2 sky130_fd_pr__pfet_01v8 ad=1.64e+13p pd=1.0656e+08u as=0p ps=0u w=5e+06u l=150000u
X24 gpio_analog[14] a_288222_344859# gpio_analog[2] vdda2 sky130_fd_pr__pfet_01v8 ad=0p pd=0u as=0p ps=0u w=5e+06u l=150000u
X25 vdda2 a_287364_345383# a_288222_344059# vdda2 sky130_fd_pr__pfet_01v8_hvt ad=0p pd=0u as=1.08e+12p ps=1.016e+07u w=1e+06u l=150000u
X26 a_12801_269626# a_284689_340388# gpio_analog[2] vdda2 sky130_fd_pr__pfet_01v8 ad=0p pd=0u as=0p ps=0u w=5e+06u l=150000u
X27 a_287139_344765# gpio_analog[6] a_5816_240836# a_5816_240836# sky130_fd_pr__nfet_01v8 ad=7.02e+11p pd=7.36e+06u as=0p ps=0u w=650000u l=150000u
X28 a_42819_684860# io_analog[9] a_43026_690893# a_5816_240836# sky130_fd_pr__nfet_01v8 ad=2.32e+13p pd=1.6928e+08u as=5.8e+12p ps=4.232e+07u w=5e+06u l=500000u
X29 a_284459_345646# a_282219_345636# a_5816_240836# a_5816_240836# sky130_fd_pr__nfet_01v8 ad=1.755e+11p pd=1.84e+06u as=0p ps=0u w=650000u l=150000u
X30 io_analog[8] io_analog[8] vccd2 a_5816_240836# sky130_fd_pr__nfet_01v8 ad=1.595e+14p pd=1.10638e+09u as=2.14535e+14p ps=1.68384e+09u w=5e+07u l=200000u
X31 vdda2 a_14374_271026# a_14374_271026# vdda2 sky130_fd_pr__pfet_01v8 ad=0p pd=0u as=1.595e+13p ps=1.1638e+08u w=5e+06u l=500000u
X32 a_290737_348985# a_288222_348059# gpio_analog[2] vdda2 sky130_fd_pr__pfet_01v8 ad=0p pd=0u as=0p ps=0u w=5e+06u l=150000u
X33 a_43026_690893# a_43026_690893# vccd2 vccd2 sky130_fd_pr__pfet_01v8 ad=1.595e+13p pd=1.1638e+08u as=0p ps=0u w=5e+06u l=500000u
X34 vccd1 a_540916_680434# a_540371_681998# vccd1 sky130_fd_pr__pfet_01v8 ad=0p pd=0u as=8.7e+12p ps=6.348e+07u w=5e+06u l=1e+06u
X35 a_287588_343809# a_287812_343783# a_284689_340388# a_5816_240836# sky130_fd_pr__nfet_01v8 ad=0p pd=0u as=1.755e+11p ps=1.84e+06u w=650000u l=150000u
X36 a_288447_352413# a_290737_348985# a_5816_240836# a_5816_240836# sky130_fd_pr__nfet_01v8 ad=2.555e+13p pd=1.8022e+08u as=0p ps=0u w=5e+06u l=1e+06u
X37 a_12801_269626# a_284689_340388# gpio_analog[2] vdda2 sky130_fd_pr__pfet_01v8 ad=0p pd=0u as=0p ps=0u w=5e+06u l=150000u
X38 io_analog[8] a_5816_240836# a_5816_240836# a_5816_240836# sky130_fd_pr__nfet_01v8 ad=0p pd=0u as=0p ps=0u w=5e+07u l=200000u
X39 a_40125_693523# a_43026_690893# vccd2 vccd2 sky130_fd_pr__pfet_01v8 ad=1.595e+13p pd=1.1638e+08u as=0p ps=0u w=5e+06u l=500000u
X40 a_537154_685355# a_534722_685355# a_5816_240836# sky130_fd_pr__res_xhigh_po_5p73 l=1e+07u
X41 io_analog[10] a_40125_693523# vccd2 vccd2 sky130_fd_pr__pfet_01v8 ad=0p pd=0u as=0p ps=0u w=5e+06u l=500000u
X42 a_43026_690893# a_43026_690893# vccd2 vccd2 sky130_fd_pr__pfet_01v8 ad=0p pd=0u as=0p ps=0u w=5e+06u l=500000u
X43 io_analog[9] a_5816_240836# a_5816_240836# a_5816_240836# sky130_fd_pr__nfet_01v8 ad=1.595e+14p pd=1.10638e+09u as=0p ps=0u w=5e+07u l=200000u
X44 a_287394_349409# a_287350_342628# a_287588_349409# a_5816_240836# sky130_fd_pr__nfet_01v8 ad=3.51e+11p pd=3.68e+06u as=5.915e+11p ps=5.72e+06u w=650000u l=150000u
X45 a_14374_271026# a_14374_271026# vdda2 vdda2 sky130_fd_pr__pfet_01v8 ad=0p pd=0u as=0p ps=0u w=5e+06u l=500000u
X46 a_40125_693523# a_43026_690893# vccd2 vccd2 sky130_fd_pr__pfet_01v8 ad=0p pd=0u as=0p ps=0u w=5e+06u l=500000u
X47 a_5816_240836# a_20532_271136# a_12801_269626# a_5816_240836# sky130_fd_pr__nfet_01v8 ad=0p pd=0u as=1.83e+13p ps=1.2732e+08u w=5e+06u l=1e+06u
X48 a_12801_269626# a_284689_340388# gpio_analog[2] vdda2 sky130_fd_pr__pfet_01v8 ad=0p pd=0u as=0p ps=0u w=5e+06u l=150000u
X49 a_5816_240836# gpio_analog[6] a_287139_344765# a_5816_240836# sky130_fd_pr__nfet_01v8 ad=0p pd=0u as=0p ps=0u w=650000u l=150000u
X50 a_5816_240836# gpio_analog[4] a_287350_342628# a_5816_240836# sky130_fd_pr__nfet_01v8 ad=0p pd=0u as=7.02e+11p ps=7.36e+06u w=650000u l=150000u
X51 a_287144_347009# gpio_analog[6] a_5816_240836# a_5816_240836# sky130_fd_pr__nfet_01v8 ad=5.265e+11p pd=5.52e+06u as=0p ps=0u w=650000u l=150000u
X52 a_534722_685355# a_537154_685355# a_5816_240836# sky130_fd_pr__res_xhigh_po_5p73 l=1e+07u
X53 gpio_analog[2] a_282219_343936# a_11871_268125# vdda2 sky130_fd_pr__pfet_01v8 ad=0p pd=0u as=0p ps=0u w=5e+06u l=150000u
X54 a_286876_343809# a_284689_340388# vdda2 vdda2 sky130_fd_pr__pfet_01v8_hvt ad=2.7e+11p pd=2.54e+06u as=0p ps=0u w=1e+06u l=150000u
X55 gpio_analog[13] gpio_analog[13] vdda2 a_5816_240836# sky130_fd_pr__nfet_01v8 ad=1.595e+14p pd=1.10638e+09u as=3.18606e+14p ps=2.87548e+09u w=5e+07u l=200000u
X56 a_5816_240836# a_20532_271136# a_17579_272227# a_5816_240836# sky130_fd_pr__nfet_01v8 ad=0p pd=0u as=2.32e+13p ps=1.6928e+08u w=5e+06u l=1e+06u
X57 gpio_analog[8] a_282219_350736# gpio_analog[2] vdda2 sky130_fd_pr__pfet_01v8 ad=1.64e+13p pd=1.0656e+08u as=0p ps=0u w=5e+06u l=150000u
X58 vdda1 a_290737_350685# a_288447_352413# vdda1 sky130_fd_pr__pfet_01v8 ad=0p pd=0u as=7.44e+13p ps=5.2976e+08u w=5e+06u l=500000u
X59 a_5816_240836# a_287139_344765# a_287144_347809# a_5816_240836# sky130_fd_pr__nfet_01v8 ad=0p pd=0u as=5.265e+11p ps=5.52e+06u w=650000u l=150000u
X60 gpio_analog[2] a_282219_345636# gpio_analog[11] vdda2 sky130_fd_pr__pfet_01v8 ad=0p pd=0u as=1.64e+13p ps=1.0656e+08u w=5e+06u l=150000u
X61 a_5816_240836# a_42877_684772# a_42819_684860# a_5816_240836# sky130_fd_pr__nfet_01v8 ad=0p pd=0u as=0p ps=0u w=5e+06u l=1e+06u
X62 io_analog[10] a_40125_693523# vccd2 vccd2 sky130_fd_pr__pfet_01v8 ad=0p pd=0u as=0p ps=0u w=5e+06u l=500000u
X63 vccd1 a_540271_687858# a_537154_685355# vccd1 sky130_fd_pr__pfet_01v8 ad=0p pd=0u as=0p ps=0u w=5e+06u l=500000u
X64 gpio_analog[7] a_286829_352328# gpio_analog[2] a_5816_240836# sky130_fd_pr__nfet_01v8 ad=8.15e+12p pd=5.326e+07u as=0p ps=0u w=5e+06u l=150000u
X65 a_288390_347809# gpio_analog[4] a_288584_347809# a_5816_240836# sky130_fd_pr__nfet_01v8 ad=3.51e+11p pd=3.68e+06u as=5.915e+11p ps=5.72e+06u w=650000u l=150000u
X66 a_282219_350736# a_287364_345383# vdda2 vdda2 sky130_fd_pr__pfet_01v8_hvt ad=1.08e+12p pd=1.016e+07u as=0p ps=0u w=1e+06u l=150000u
X67 a_5816_240836# a_290737_348985# a_536459_285940# a_5816_240836# sky130_fd_pr__nfet_01v8 ad=0p pd=0u as=0p ps=0u w=5e+06u l=1e+06u
X68 a_287588_349409# a_287812_343783# a_284589_352318# a_5816_240836# sky130_fd_pr__nfet_01v8 ad=0p pd=0u as=1.755e+11p ps=1.84e+06u w=650000u l=150000u
X69 gpio_analog[2] a_288222_349659# a_288447_352413# vdda2 sky130_fd_pr__pfet_01v8 ad=0p pd=0u as=0p ps=0u w=5e+06u l=150000u
X70 a_289220_343809# a_288222_344059# a_5816_240836# a_5816_240836# sky130_fd_pr__nfet_01v8 ad=1.755e+11p pd=1.84e+06u as=0p ps=0u w=650000u l=150000u
X71 vdda1 a_536271_291858# a_536271_291858# vdda1 sky130_fd_pr__pfet_01v8 ad=0p pd=0u as=0p ps=0u w=5e+06u l=500000u
X72 gpio_analog[2] a_289220_344609# gpio_analog[14] a_5816_240836# sky130_fd_pr__nfet_01v8 ad=0p pd=0u as=8.15e+12p ps=5.326e+07u w=5e+06u l=150000u
X73 vccd2 a_40125_693523# io_analog[10] vccd2 sky130_fd_pr__pfet_01v8 ad=0p pd=0u as=0p ps=0u w=5e+06u l=500000u
X74 vccd1 a_540271_687858# a_540271_687858# vccd1 sky130_fd_pr__pfet_01v8 ad=0p pd=0u as=0p ps=0u w=5e+06u l=500000u
X75 a_14374_271026# a_14374_271026# vdda2 vdda2 sky130_fd_pr__pfet_01v8 ad=0p pd=0u as=0p ps=0u w=5e+06u l=500000u
X76 a_11871_268125# a_14374_271026# vdda2 vdda2 sky130_fd_pr__pfet_01v8 ad=0p pd=0u as=0p ps=0u w=5e+06u l=500000u
X77 a_20532_271136# a_20532_271136# a_5816_240836# a_5816_240836# sky130_fd_pr__nfet_01v8 ad=0p pd=0u as=0p ps=0u w=1.25e+06u l=1e+06u
X78 a_43026_690893# a_43026_690893# vccd2 vccd2 sky130_fd_pr__pfet_01v8 ad=0p pd=0u as=0p ps=0u w=5e+06u l=500000u
X79 vdda2 gpio_analog[13] gpio_analog[13] a_5816_240836# sky130_fd_pr__nfet_01v8 ad=0p pd=0u as=0p ps=0u w=5e+07u l=200000u
X80 gpio_analog[16] a_289220_347009# gpio_analog[2] a_5816_240836# sky130_fd_pr__nfet_01v8 ad=8.15e+12p pd=5.326e+07u as=0p ps=0u w=5e+06u l=150000u
X81 a_282219_347336# a_287812_343783# a_287588_347009# a_5816_240836# sky130_fd_pr__nfet_01v8 ad=1.755e+11p pd=1.84e+06u as=5.915e+11p ps=5.72e+06u w=650000u l=150000u
X82 a_5816_240836# a_5816_240836# io_analog[9] a_5816_240836# sky130_fd_pr__nfet_01v8 ad=0p pd=0u as=0p ps=0u w=5e+07u l=200000u
X83 a_40125_693523# a_43026_690893# vccd2 vccd2 sky130_fd_pr__pfet_01v8 ad=0p pd=0u as=0p ps=0u w=5e+06u l=500000u
X84 a_282219_343936# gpio_analog[6] vdda2 vdda2 sky130_fd_pr__pfet_01v8_hvt ad=1.08e+12p pd=1.016e+07u as=0p ps=0u w=1e+06u l=150000u
X85 vccd2 io_analog[9] io_analog[9] a_5816_240836# sky130_fd_pr__nfet_01v8 ad=0p pd=0u as=0p ps=0u w=5e+07u l=200000u
X86 a_287588_347809# a_287350_342628# a_287394_347809# a_5816_240836# sky130_fd_pr__nfet_01v8 ad=5.915e+11p pd=5.72e+06u as=3.51e+11p ps=3.68e+06u w=650000u l=150000u
X87 vdda1 a_290737_350685# a_288447_352413# vdda1 sky130_fd_pr__pfet_01v8 ad=0p pd=0u as=0p ps=0u w=5e+06u l=500000u
X88 io_analog[2] a_540371_681998# a_5816_240836# a_5816_240836# sky130_fd_pr__nfet_01v8 ad=1.74e+13p pd=1.2696e+08u as=0p ps=0u w=5e+06u l=1e+06u
X89 vdda1 a_536271_291858# a_536271_291858# vdda1 sky130_fd_pr__pfet_01v8 ad=0p pd=0u as=0p ps=0u w=5e+06u l=500000u
X90 vdda2 a_14374_271026# a_11871_268125# vdda2 sky130_fd_pr__pfet_01v8 ad=0p pd=0u as=0p ps=0u w=5e+06u l=500000u
X91 a_288584_347809# gpio_analog[3] a_288222_348059# a_5816_240836# sky130_fd_pr__nfet_01v8 ad=0p pd=0u as=1.755e+11p ps=1.84e+06u w=650000u l=150000u
X92 a_287394_345409# a_287364_345383# a_287144_345409# a_5816_240836# sky130_fd_pr__nfet_01v8 ad=3.51e+11p pd=3.68e+06u as=5.265e+11p ps=5.52e+06u w=650000u l=150000u
X93 gpio_analog[2] a_284459_350746# gpio_analog[8] a_5816_240836# sky130_fd_pr__nfet_01v8 ad=0p pd=0u as=8.15e+12p ps=5.326e+07u w=5e+06u l=150000u
X94 gpio_analog[2] a_282219_342236# a_20532_271136# vdda2 sky130_fd_pr__pfet_01v8 ad=0p pd=0u as=0p ps=0u w=5e+06u l=150000u
X95 vdda2 a_287812_343783# a_282219_347336# vdda2 sky130_fd_pr__pfet_01v8_hvt ad=0p pd=0u as=1.08e+12p ps=1.016e+07u w=1e+06u l=150000u
X96 gpio_analog[13] gpio_analog[13] vdda2 a_5816_240836# sky130_fd_pr__nfet_01v8 ad=0p pd=0u as=0p ps=0u w=5e+07u l=200000u
X97 a_5816_240836# a_288222_345659# gpio_analog[2] vdda2 sky130_fd_pr__pfet_01v8 ad=0p pd=0u as=0p ps=0u w=5e+06u l=150000u
X98 gpio_analog[11] a_284459_345646# gpio_analog[2] a_5816_240836# sky130_fd_pr__nfet_01v8 ad=0p pd=0u as=0p ps=0u w=5e+06u l=150000u
X99 gpio_analog[16] a_289220_347009# gpio_analog[2] a_5816_240836# sky130_fd_pr__nfet_01v8 ad=0p pd=0u as=0p ps=0u w=5e+06u l=150000u
X100 a_288222_347259# gpio_analog[4] vdda2 vdda2 sky130_fd_pr__pfet_01v8_hvt ad=1.08e+12p pd=1.016e+07u as=0p ps=0u w=1e+06u l=150000u
X101 io_analog[0] io_analog[0] vccd1 a_5816_240836# sky130_fd_pr__nfet_01v8 ad=1.595e+14p pd=1.10638e+09u as=3.81686e+14p ps=3.65032e+09u w=5e+07u l=200000u
X102 gpio_analog[10] a_282219_347336# gpio_analog[2] vdda2 sky130_fd_pr__pfet_01v8 ad=0p pd=0u as=0p ps=0u w=5e+06u l=150000u
X103 a_288447_352413# a_290737_348985# a_5816_240836# a_5816_240836# sky130_fd_pr__nfet_01v8 ad=0p pd=0u as=0p ps=0u w=5e+06u l=1e+06u
X104 a_5816_240836# a_5816_240836# gpio_analog[12] a_5816_240836# sky130_fd_pr__nfet_01v8 ad=0p pd=0u as=1.595e+14p ps=1.10638e+09u w=5e+07u l=200000u
X105 vccd1 a_540916_680434# a_540371_681998# vccd1 sky130_fd_pr__pfet_01v8 ad=0p pd=0u as=0p ps=0u w=5e+06u l=1e+06u
X106 a_289220_349409# a_288222_349659# a_5816_240836# a_5816_240836# sky130_fd_pr__nfet_01v8 ad=1.755e+11p pd=1.84e+06u as=0p ps=0u w=650000u l=150000u
X107 vdda1 a_536916_284434# a_290737_348985# vdda1 sky130_fd_pr__pfet_01v8 ad=0p pd=0u as=0p ps=0u w=5e+06u l=1e+06u
X108 gpio_analog[11] a_284459_345646# gpio_analog[2] a_5816_240836# sky130_fd_pr__nfet_01v8 ad=0p pd=0u as=0p ps=0u w=5e+06u l=150000u
X109 gpio_analog[16] a_289220_347009# gpio_analog[2] a_5816_240836# sky130_fd_pr__nfet_01v8 ad=0p pd=0u as=0p ps=0u w=5e+06u l=150000u
X110 a_288390_343809# a_287364_345383# a_288140_343809# a_5816_240836# sky130_fd_pr__nfet_01v8 ad=3.51e+11p pd=3.68e+06u as=5.265e+11p ps=5.52e+06u w=650000u l=150000u
X111 a_287364_345383# gpio_analog[5] a_5816_240836# a_5816_240836# sky130_fd_pr__nfet_01v8 ad=7.02e+11p pd=7.36e+06u as=0p ps=0u w=650000u l=150000u
X112 gpio_analog[2] a_288222_348059# a_290737_348985# vdda2 sky130_fd_pr__pfet_01v8 ad=0p pd=0u as=0p ps=0u w=5e+06u l=150000u
X113 a_42819_684860# io_analog[8] a_40125_693523# a_5816_240836# sky130_fd_pr__nfet_01v8 ad=0p pd=0u as=5.8e+12p ps=4.232e+07u w=5e+06u l=500000u
X114 vdda1 a_536271_291858# a_290737_350685# vdda1 sky130_fd_pr__pfet_01v8 ad=0p pd=0u as=4.685e+13p ps=3.2874e+08u w=5e+06u l=500000u
X115 vdda2 gpio_analog[3] a_288222_345659# vdda2 sky130_fd_pr__pfet_01v8_hvt ad=0p pd=0u as=1.08e+12p ps=1.016e+07u w=1e+06u l=150000u
X116 vccd2 io_analog[8] io_analog[8] a_5816_240836# sky130_fd_pr__nfet_01v8 ad=0p pd=0u as=0p ps=0u w=5e+07u l=200000u
X117 vdda2 a_287350_342628# a_282219_347336# vdda2 sky130_fd_pr__pfet_01v8_hvt ad=0p pd=0u as=0p ps=0u w=1e+06u l=150000u
X118 vccd1 io_analog[0] io_analog[0] a_5816_240836# sky130_fd_pr__nfet_01v8 ad=0p pd=0u as=0p ps=0u w=5e+07u l=200000u
X119 io_analog[9] io_analog[9] vccd2 a_5816_240836# sky130_fd_pr__nfet_01v8 ad=0p pd=0u as=0p ps=0u w=5e+07u l=200000u
X120 a_5816_240836# a_42877_684772# a_42819_684860# a_5816_240836# sky130_fd_pr__nfet_01v8 ad=0p pd=0u as=0p ps=0u w=5e+06u l=1e+06u
X121 a_5816_240836# a_540371_681998# a_540459_681940# a_5816_240836# sky130_fd_pr__nfet_01v8 ad=0p pd=0u as=4.06e+13p ps=2.9624e+08u w=5e+06u l=1e+06u
R1 vssa2 a_5816_240836# sky130_fd_pr__res_generic_m3 w=7.45e+07u l=2.6e+06u
X122 gpio_analog[12] a_5816_240836# a_5816_240836# a_5816_240836# sky130_fd_pr__nfet_01v8 ad=0p pd=0u as=0p ps=0u w=5e+07u l=200000u
X123 a_5816_240836# a_5816_240836# io_analog[8] a_5816_240836# sky130_fd_pr__nfet_01v8 ad=0p pd=0u as=0p ps=0u w=5e+07u l=200000u
X124 io_analog[10] a_37693_693523# sky130_fd_pr__cap_mim_m3_1 l=1.6e+07u w=1.6e+07u
X125 vdda2 gpio_analog[5] a_287364_345383# vdda2 sky130_fd_pr__pfet_01v8_hvt ad=0p pd=0u as=1.08e+12p ps=1.016e+07u w=1e+06u l=150000u
X126 vdda2 gpio_analog[3] a_287812_343783# vdda2 sky130_fd_pr__pfet_01v8_hvt ad=0p pd=0u as=1.08e+12p ps=1.016e+07u w=1e+06u l=150000u
X127 a_289220_347009# a_288222_347259# vdda2 vdda2 sky130_fd_pr__pfet_01v8_hvt ad=2.7e+11p pd=2.54e+06u as=0p ps=0u w=1e+06u l=150000u
X128 a_287144_343809# gpio_analog[5] a_287394_343809# a_5816_240836# sky130_fd_pr__nfet_01v8 ad=5.265e+11p pd=5.52e+06u as=0p ps=0u w=650000u l=150000u
X129 gpio_analog[2] a_284689_340388# a_12801_269626# vdda2 sky130_fd_pr__pfet_01v8 ad=0p pd=0u as=0p ps=0u w=5e+06u l=150000u
X130 gpio_analog[10] a_282219_347336# gpio_analog[2] vdda2 sky130_fd_pr__pfet_01v8 ad=0p pd=0u as=0p ps=0u w=5e+06u l=150000u
X131 a_5816_240836# a_290737_348985# a_536459_285940# a_5816_240836# sky130_fd_pr__nfet_01v8 ad=0p pd=0u as=0p ps=0u w=5e+06u l=1e+06u
X132 a_5816_240836# gpio_analog[5] a_287364_345383# a_5816_240836# sky130_fd_pr__nfet_01v8 ad=0p pd=0u as=0p ps=0u w=650000u l=150000u
X133 gpio_analog[2] a_288222_344859# gpio_analog[14] vdda2 sky130_fd_pr__pfet_01v8 ad=0p pd=0u as=0p ps=0u w=5e+06u l=150000u
X134 vdda2 a_287350_342628# a_288222_345659# vdda2 sky130_fd_pr__pfet_01v8_hvt ad=0p pd=0u as=0p ps=0u w=1e+06u l=150000u
X135 gpio_analog[2] a_282219_350736# gpio_analog[8] vdda2 sky130_fd_pr__pfet_01v8 ad=0p pd=0u as=0p ps=0u w=5e+06u l=150000u
X136 io_analog[0] io_analog[0] vccd1 a_5816_240836# sky130_fd_pr__nfet_01v8 ad=0p pd=0u as=0p ps=0u w=5e+07u l=200000u
X137 vccd1 a_540271_687858# a_537154_685355# vccd1 sky130_fd_pr__pfet_01v8 ad=0p pd=0u as=0p ps=0u w=5e+06u l=500000u
X138 a_288222_349659# gpio_analog[6] vdda2 vdda2 sky130_fd_pr__pfet_01v8_hvt ad=1.08e+12p pd=1.016e+07u as=0p ps=0u w=1e+06u l=150000u
X139 a_12801_269626# a_11871_265693# sky130_fd_pr__cap_mim_m3_1 l=1.6e+07u w=1.6e+07u
X140 gpio_analog[11] a_282219_345636# gpio_analog[2] vdda2 sky130_fd_pr__pfet_01v8 ad=0p pd=0u as=0p ps=0u w=5e+06u l=150000u
X141 gpio_analog[16] a_288222_347259# gpio_analog[2] vdda2 sky130_fd_pr__pfet_01v8 ad=1.64e+13p pd=1.0656e+08u as=0p ps=0u w=5e+06u l=150000u
X142 a_5816_240836# a_5816_240836# gpio_analog[12] a_5816_240836# sky130_fd_pr__nfet_01v8 ad=0p pd=0u as=0p ps=0u w=5e+07u l=200000u
X143 a_11871_268125# a_14374_271026# vdda2 vdda2 sky130_fd_pr__pfet_01v8 ad=0p pd=0u as=0p ps=0u w=5e+06u l=500000u
X144 a_14374_271026# a_14374_271026# vdda2 vdda2 sky130_fd_pr__pfet_01v8 ad=0p pd=0u as=0p ps=0u w=5e+06u l=500000u
X145 io_analog[10] a_40125_693523# vccd2 vccd2 sky130_fd_pr__pfet_01v8 ad=0p pd=0u as=0p ps=0u w=5e+06u l=500000u
X146 a_5816_240836# a_288222_348059# a_289220_347809# a_5816_240836# sky130_fd_pr__nfet_01v8 ad=0p pd=0u as=1.755e+11p ps=1.84e+06u w=650000u l=150000u
X147 a_288390_349409# gpio_analog[5] a_288140_349409# a_5816_240836# sky130_fd_pr__nfet_01v8 ad=3.51e+11p pd=3.68e+06u as=5.265e+11p ps=5.52e+06u w=650000u l=150000u
X148 a_43026_690893# a_43026_690893# vccd2 vccd2 sky130_fd_pr__pfet_01v8 ad=0p pd=0u as=0p ps=0u w=5e+06u l=500000u
X149 a_12801_269626# a_11871_268125# vdda2 vdda2 sky130_fd_pr__pfet_01v8 ad=0p pd=0u as=0p ps=0u w=5e+06u l=500000u
X150 a_5816_240836# a_5816_240836# gpio_analog[13] a_5816_240836# sky130_fd_pr__nfet_01v8 ad=0p pd=0u as=0p ps=0u w=5e+07u l=200000u